Version 4
SHEET 1 880 680
WIRE 96 48 -128 48
WIRE 224 48 96 48
WIRE 464 48 304 48
WIRE 480 48 464 48
WIRE 96 96 96 48
WIRE 464 144 464 48
WIRE -128 160 -128 48
WIRE 96 192 96 176
WIRE 240 192 96 192
WIRE 400 192 384 192
WIRE 240 208 240 192
WIRE 384 208 384 192
WIRE 384 208 240 208
WIRE 240 224 240 208
WIRE 96 240 96 192
WIRE -128 336 -128 240
WIRE 96 336 96 304
WIRE 96 336 -128 336
WIRE 160 336 96 336
WIRE 240 336 240 304
WIRE 240 336 160 336
WIRE 464 336 464 240
WIRE 464 336 240 336
WIRE 160 368 160 336
FLAG 160 368 0
FLAG 480 48 Vout
IOPIN 480 48 Out
SYMBOL voltage -128 144 R0
SYMATTR InstName V1
SYMATTR Value 9v
SYMBOL res 320 32 R90
WINDOW 0 0 56 VBottom 2
WINDOW 3 32 56 VTop 2
SYMATTR InstName R1
SYMATTR Value 220
SYMBOL res 80 80 R0
SYMATTR InstName R2
SYMATTR Value 1k
SYMBOL res 224 208 R0
SYMATTR InstName R3
SYMATTR Value {R}
SYMBOL diode 80 240 R0
SYMATTR InstName D1
SYMATTR Value 1N4148
SYMBOL npn 400 144 R0
SYMATTR InstName Q1
SYMATTR Value BC547B
TEXT -8 8 Left 2 ;Temperature sensor
TEXT 304 360 Left 2 !.step param R 1 100 10
TEXT 304 392 Left 2 !.tran 0 15s 0 1ms
